60
kvf1.pdb
N         35.36500       22.34200      -11.98000
C         35.89200       21.07300      -11.42700
C         34.74100       20.26400      -10.84400
O         33.94500       20.81300      -10.08100
C         36.87200       21.43500      -10.30600
C         37.45300       20.24800       -9.56500
C         38.68800       20.64900       -8.77500
C         39.05700       19.50800       -7.83700
N         40.42300       19.77100       -7.29900
N         34.73900       18.96100      -11.04200
C         33.90300       17.99800      -10.33300
C         34.80000       17.31200       -9.29400
O         35.75900       16.60500       -9.66500
C         33.14000       17.03400      -11.23200
C         32.25100       16.08400      -10.43400
C         32.29400       17.71400      -12.29000
N         34.49100       17.54600       -8.03800
C         35.18500       16.90300       -6.91800
C         34.74200       15.44100       -6.77100
O         33.52500       15.16200       -6.86200
C         34.96700       17.63200       -5.59400
C         35.94400       18.73700       -5.37500
C         35.66600       20.05000       -5.79800
C         37.00000       18.55700       -4.47300
C         36.57700       21.07600       -5.56800
C         37.86900       19.58900       -4.15700
C         37.63600       20.87300       -4.66600
H         34.70660       22.13780      -12.73180
H         36.13658       22.89981      -12.34594
H         36.37635       20.49662      -12.18732
H         36.35635       22.04985       -9.59821
H         37.69605       21.93195      -10.77386
H         37.72084       19.49115      -10.27235
H         36.71660       19.87955       -8.88173
H         38.48092       21.53095       -8.20562
H         39.49953       20.84986       -9.44281
H         39.05079       18.58194       -8.37297
H         38.35011       19.44416       -7.03629
H         41.08701       19.82963       -8.07104
H         40.69429       19.01184       -6.67412
H         40.42187       20.65139       -6.78391
H         35.35311       18.60781      -11.72565
H         33.10072       18.51122       -9.84531
H         33.90892       16.48203      -11.73100
H         31.48536       16.64364       -9.93853
H         32.84268       15.56793       -9.70703
H         31.80174       15.37444      -11.09702
H         31.51483       18.27482      -11.81748
H         31.86238       16.97420      -12.93133
H         32.90757       18.37300      -12.86805
H         33.76337       18.17930       -7.84120
H         36.22923       16.94532       -7.14753
H         35.43765       14.69824       -6.59953
H         35.06405       16.92659       -4.79533
H         33.98984       18.06700       -5.62288
H         34.77827       20.25370       -6.28325
H         37.13426       17.63324       -4.03292
H         36.47608       21.97967       -6.05607
H         38.68423       19.41239       -3.54935
H         38.23626       21.66277       -4.38145
